data_Cu_FCC
_symmetry_space_group_name_H-M   'F m -3 m'
_cell_length_a   3.61500
_cell_length_b   3.61500
_cell_length_c   3.61500
_cell_angle_alpha   90.00000
_cell_angle_beta    90.00000
_cell_angle_gamma   90.00000

loop_
_atom_site_label
_atom_site_type_symbol
_atom_site_fract_x
_atom_site_fract_y
_atom_site_fract_z
Cu1  Cu  0.00000  0.00000  0.00000
