data_Cu_paddlewheel
_symmetry_space_group_name_H-M   'P 1'
_cell_length_a   10.00000
_cell_length_b   10.00000
_cell_length_c   12.50000
_cell_angle_alpha   90.00000
_cell_angle_beta    90.00000
_cell_angle_gamma   90.00000

loop_
_atom_site_label
_atom_site_type_symbol
_atom_site_fract_x
_atom_site_fract_y
_atom_site_fract_z
Cu1  Cu  0.50000  0.50000  0.40000
Cu2  Cu  0.50000  0.50000  0.60000
O1   O   0.65000  0.50000  0.46400
O2   O   0.65000  0.50000  0.53600
O3   O   0.35000  0.50000  0.46400
O4   O   0.35000  0.50000  0.53600
O5   O   0.50000  0.65000  0.46400
O6   O   0.50000  0.65000  0.53600
O7   O   0.50000  0.35000  0.46400
O8   O   0.50000  0.35000  0.53600
C1   C   0.72000  0.50000  0.50000
C2   C   0.28000  0.50000  0.50000
C3   C   0.50000  0.72000  0.50000
C4   C   0.50000  0.28000  0.50000
C5   C   0.85000  0.50000  0.50000
C6   C   0.15000  0.50000  0.50000
C7   C   0.50000  0.85000  0.50000
C8   C   0.50000  0.15000  0.50000
H1   H   0.92000  0.50000  0.50000
H2   H   0.08000  0.50000  0.50000
H3   H   0.50000  0.92000  0.50000
H4   H   0.50000  0.08000  0.50000
